ligand.pdb
 OpenBabel08292314213D

 12 12  0  0  0  0  0  0  0  0999 V2000
  -32.9690    6.1960    2.8770 C   0  0  0  0  0  0  0  0  0  0  0  0
  -32.9450    7.0460    3.9730 C   0  0  0  0  0  0  0  0  0  0  0  0
  -33.7190    6.7980    5.1130 C   0  0  0  0  0  0  0  0  0  0  0  0
  -34.5400    5.6800    5.1430 C   0  0  0  0  0  0  0  0  0  0  0  0
  -34.5450    4.8250    4.0440 C   0  0  0  0  0  0  0  0  0  0  0  0
  -33.7870    5.0690    2.9150 C   0  0  0  0  0  0  0  0  0  0  0  0
  -32.3899    6.3954    2.0464 H   0  0  0  0  0  0  0  0  0  0  0  0
  -32.3412    7.8825    3.9474 H   0  0  0  0  0  0  0  0  0  0  0  0
  -33.6793    7.4388    5.9209 H   0  0  0  0  0  0  0  0  0  0  0  0
  -35.1351    5.4859    5.9635 H   0  0  0  0  0  0  0  0  0  0  0  0
  -35.1357    3.9793    4.0739 H   0  0  0  0  0  0  0  0  0  0  0  0
  -33.8263    4.4245    2.1100 H   0  0  0  0  0  0  0  0  0  0  0  0
  1  6  2  0  0  0  0
  1  2  1  0  0  0  0
  1  7  1  0  0  0  0
  2  3  2  0  0  0  0
  2  8  1  0  0  0  0
  3  4  1  0  0  0  0
  3  9  1  0  0  0  0
  4 10  1  0  0  0  0
  5  4  2  0  0  0  0
  5 11  1  0  0  0  0
  6  5  1  0  0  0  0
  6 12  1  0  0  0  0
M  END
$$$$
